** SpjutSim FEA independent reference: gravity-reaction
** Generated by tools/generate-calculix-reference.py; SI units.
*NODE
1, 0, 0, 0
2, 0.125, 0, 0
3, 0.25, 0, 0
4, 0.375, 0, 0
5, 0.5, 0, 0
6, 0.625, 0, 0
7, 0.75, 0, 0
8, 0.875, 0, 0
9, 1, 0, 0
10, 0, 0.125, 0
11, 0.125, 0.125, 0
12, 0.25, 0.125, 0
13, 0.375, 0.125, 0
14, 0.5, 0.125, 0
15, 0.625, 0.125, 0
16, 0.75, 0.125, 0
17, 0.875, 0.125, 0
18, 1, 0.125, 0
19, 0, 0.25, 0
20, 0.125, 0.25, 0
** ... 709 like lines cut
*ELEMENT, TYPE=C3D8, ELSET=EALL
1, 1, 2, 11, 10, 82, 83, 92, 91
2, 2, 3, 12, 11, 83, 84, 93, 92
3, 3, 4, 13, 12, 84, 85, 94, 93
4, 4, 5, 14, 13, 85, 86, 95, 94
5, 5, 6, 15, 14, 86, 87, 96, 95
6, 6, 7, 16, 15, 87, 88, 97, 96
7, 7, 8, 17, 16, 88, 89, 98, 97
8, 8, 9, 18, 17, 89, 90, 99, 98
9, 10, 11, 20, 19, 91, 92, 101, 100
10, 11, 12, 21, 20, 92, 93, 102, 101
11, 12, 13, 22, 21, 93, 94, 103, 102
12, 13, 14, 23, 22, 94, 95, 104, 103
13, 14, 15, 24, 23, 95, 96, 105, 104
14, 15, 16, 25, 24, 96, 97, 106, 105
15, 16, 17, 26, 25, 97, 98, 107, 106
16, 17, 18, 27, 26, 98, 99, 108, 107
17, 19, 20, 29, 28, 100, 101, 110, 109
18, 20, 21, 30, 29, 101, 102, 111, 110
19, 21, 22, 31, 30, 102, 103, 112, 111
20, 22, 23, 32, 31, 103, 104, 113, 112
** ... 492 like lines cut
*NSET, NSET=NALL
1, 2, 3, 4, 5, 6, 7, 8, 9, 10, 11, 12, 13, 14, 15, 16
17, 18, 19, 20, 21, 22, 23, 24, 25, 26, 27, 28, 29, 30, 31, 32
33, 34, 35, 36, 37, 38, 39, 40, 41, 42, 43, 44, 45, 46, 47, 48
49, 50, 51, 52, 53, 54, 55, 56, 57, 58, 59, 60, 61, 62, 63, 64
65, 66, 67, 68, 69, 70, 71, 72, 73, 74, 75, 76, 77, 78, 79, 80
81, 82, 83, 84, 85, 86, 87, 88, 89, 90, 91, 92, 93, 94, 95, 96
97, 98, 99, 100, 101, 102, 103, 104, 105, 106, 107, 108, 109, 110, 111, 112
113, 114, 115, 116, 117, 118, 119, 120, 121, 122, 123, 124, 125, 126, 127, 128
129, 130, 131, 132, 133, 134, 135, 136, 137, 138, 139, 140, 141, 142, 143, 144
145, 146, 147, 148, 149, 150, 151, 152, 153, 154, 155, 156, 157, 158, 159, 160
161, 162, 163, 164, 165, 166, 167, 168, 169, 170, 171, 172, 173, 174, 175, 176
177, 178, 179, 180, 181, 182, 183, 184, 185, 186, 187, 188, 189, 190, 191, 192
193, 194, 195, 196, 197, 198, 199, 200, 201, 202, 203, 204, 205, 206, 207, 208
209, 210, 211, 212, 213, 214, 215, 216, 217, 218, 219, 220, 221, 222, 223, 224
225, 226, 227, 228, 229, 230, 231, 232, 233, 234, 235, 236, 237, 238, 239, 240
241, 242, 243, 244, 245, 246, 247, 248, 249, 250, 251, 252, 253, 254, 255, 256
257, 258, 259, 260, 261, 262, 263, 264, 265, 266, 267, 268, 269, 270, 271, 272
273, 274, 275, 276, 277, 278, 279, 280, 281, 282, 283, 284, 285, 286, 287, 288
289, 290, 291, 292, 293, 294, 295, 296, 297, 298, 299, 300, 301, 302, 303, 304
305, 306, 307, 308, 309, 310, 311, 312, 313, 314, 315, 316, 317, 318, 319, 320
** ... 26 like lines cut
*NSET, NSET=XMIN
1, 10, 19, 28, 37, 46, 55, 64, 73, 82, 91, 100, 109, 118, 127, 136
145, 154, 163, 172, 181, 190, 199, 208, 217, 226, 235, 244, 253, 262, 271, 280
289, 298, 307, 316, 325, 334, 343, 352, 361, 370, 379, 388, 397, 406, 415, 424
433, 442, 451, 460, 469, 478, 487, 496, 505, 514, 523, 532, 541, 550, 559, 568
577, 586, 595, 604, 613, 622, 631, 640, 649, 658, 667, 676, 685, 694, 703, 712
721
*NSET, NSET=YMIN
1, 2, 3, 4, 5, 6, 7, 8, 9, 82, 83, 84, 85, 86, 87, 88
89, 90, 163, 164, 165, 166, 167, 168, 169, 170, 171, 244, 245, 246, 247, 248
249, 250, 251, 252, 325, 326, 327, 328, 329, 330, 331, 332, 333, 406, 407, 408
409, 410, 411, 412, 413, 414, 487, 488, 489, 490, 491, 492, 493, 494, 495, 568
569, 570, 571, 572, 573, 574, 575, 576, 649, 650, 651, 652, 653, 654, 655, 656
657
*NSET, NSET=ZMIN
1, 2, 3, 4, 5, 6, 7, 8, 9, 10, 11, 12, 13, 14, 15, 16
17, 18, 19, 20, 21, 22, 23, 24, 25, 26, 27, 28, 29, 30, 31, 32
33, 34, 35, 36, 37, 38, 39, 40, 41, 42, 43, 44, 45, 46, 47, 48
49, 50, 51, 52, 53, 54, 55, 56, 57, 58, 59, 60, 61, 62, 63, 64
65, 66, 67, 68, 69, 70, 71, 72, 73, 74, 75, 76, 77, 78, 79, 80
81
*NSET, NSET=XMAX
9, 18, 27, 36, 45, 54, 63, 72, 81, 90, 99, 108, 117, 126, 135, 144
153, 162, 171, 180, 189, 198, 207, 216, 225, 234, 243, 252, 261, 270, 279, 288
297, 306, 315, 324, 333, 342, 351, 360, 369, 378, 387, 396, 405, 414, 423, 432
441, 450, 459, 468, 477, 486, 495, 504, 513, 522, 531, 540, 549, 558, 567, 576
585, 594, 603, 612, 621, 630, 639, 648, 657, 666, 675, 684, 693, 702, 711, 720
729
*ELSET, ELSET=PROBE
220
*SOLID SECTION, ELSET=EALL, MATERIAL=VALIDATION
*MATERIAL, NAME=VALIDATION
*ELASTIC
1.0E9, 0.25
*DENSITY
1000.
*BOUNDARY
XMIN, 1, 1, 0.
YMIN, 2, 2, 0.
ZMIN, 3, 3, 0.
*STEP
*STATIC
*DLOAD
EALL, GRAV, 9.81, 0., 0., -1.
*NODE PRINT, NSET=XMAX
U
*NODE PRINT, NSET=XMIN, TOTALS=YES
RF
*NODE PRINT, NSET=YMIN, TOTALS=YES
RF
*NODE PRINT, NSET=ZMIN, TOTALS=YES
RF
*EL PRINT, ELSET=PROBE
S
*END STEP
