** SpjutSim FEA independent reference: cantilever-bending
** Generated by tools/generate-calculix-reference.py; SI units.
*NODE
1, 0, 0, 0
2, 0.0625, 0, 0
3, 0.125, 0, 0
4, 0.1875, 0, 0
5, 0.25, 0, 0
6, 0.3125, 0, 0
7, 0.375, 0, 0
8, 0.4375, 0, 0
9, 0.5, 0, 0
10, 0.5625, 0, 0
11, 0.625, 0, 0
12, 0.6875, 0, 0
13, 0.75, 0, 0
14, 0.8125, 0, 0
15, 0.875, 0, 0
16, 0.9375, 0, 0
17, 1, 0, 0
18, 1.0625, 0, 0
19, 1.125, 0, 0
20, 1.1875, 0, 0
** ... 2905 like lines cut
*ELEMENT, TYPE=C3D8, ELSET=EALL
1, 1, 2, 67, 66, 326, 327, 392, 391
2, 2, 3, 68, 67, 327, 328, 393, 392
3, 3, 4, 69, 68, 328, 329, 394, 393
4, 4, 5, 70, 69, 329, 330, 395, 394
5, 5, 6, 71, 70, 330, 331, 396, 395
6, 6, 7, 72, 71, 331, 332, 397, 396
7, 7, 8, 73, 72, 332, 333, 398, 397
8, 8, 9, 74, 73, 333, 334, 399, 398
9, 9, 10, 75, 74, 334, 335, 400, 399
10, 10, 11, 76, 75, 335, 336, 401, 400
11, 11, 12, 77, 76, 336, 337, 402, 401
12, 12, 13, 78, 77, 337, 338, 403, 402
13, 13, 14, 79, 78, 338, 339, 404, 403
14, 14, 15, 80, 79, 339, 340, 405, 404
15, 15, 16, 81, 80, 340, 341, 406, 405
16, 16, 17, 82, 81, 341, 342, 407, 406
17, 17, 18, 83, 82, 342, 343, 408, 407
18, 18, 19, 84, 83, 343, 344, 409, 408
19, 19, 20, 85, 84, 344, 345, 410, 409
20, 20, 21, 86, 85, 345, 346, 411, 410
** ... 2028 like lines cut
*NSET, NSET=NALL
1, 2, 3, 4, 5, 6, 7, 8, 9, 10, 11, 12, 13, 14, 15, 16
17, 18, 19, 20, 21, 22, 23, 24, 25, 26, 27, 28, 29, 30, 31, 32
33, 34, 35, 36, 37, 38, 39, 40, 41, 42, 43, 44, 45, 46, 47, 48
49, 50, 51, 52, 53, 54, 55, 56, 57, 58, 59, 60, 61, 62, 63, 64
65, 66, 67, 68, 69, 70, 71, 72, 73, 74, 75, 76, 77, 78, 79, 80
81, 82, 83, 84, 85, 86, 87, 88, 89, 90, 91, 92, 93, 94, 95, 96
97, 98, 99, 100, 101, 102, 103, 104, 105, 106, 107, 108, 109, 110, 111, 112
113, 114, 115, 116, 117, 118, 119, 120, 121, 122, 123, 124, 125, 126, 127, 128
129, 130, 131, 132, 133, 134, 135, 136, 137, 138, 139, 140, 141, 142, 143, 144
145, 146, 147, 148, 149, 150, 151, 152, 153, 154, 155, 156, 157, 158, 159, 160
161, 162, 163, 164, 165, 166, 167, 168, 169, 170, 171, 172, 173, 174, 175, 176
177, 178, 179, 180, 181, 182, 183, 184, 185, 186, 187, 188, 189, 190, 191, 192
193, 194, 195, 196, 197, 198, 199, 200, 201, 202, 203, 204, 205, 206, 207, 208
209, 210, 211, 212, 213, 214, 215, 216, 217, 218, 219, 220, 221, 222, 223, 224
225, 226, 227, 228, 229, 230, 231, 232, 233, 234, 235, 236, 237, 238, 239, 240
241, 242, 243, 244, 245, 246, 247, 248, 249, 250, 251, 252, 253, 254, 255, 256
257, 258, 259, 260, 261, 262, 263, 264, 265, 266, 267, 268, 269, 270, 271, 272
273, 274, 275, 276, 277, 278, 279, 280, 281, 282, 283, 284, 285, 286, 287, 288
289, 290, 291, 292, 293, 294, 295, 296, 297, 298, 299, 300, 301, 302, 303, 304
305, 306, 307, 308, 309, 310, 311, 312, 313, 314, 315, 316, 317, 318, 319, 320
** ... 163 like lines cut
*NSET, NSET=XMIN
1, 66, 131, 196, 261, 326, 391, 456, 521, 586, 651, 716, 781, 846, 911, 976
1041, 1106, 1171, 1236, 1301, 1366, 1431, 1496, 1561, 1626, 1691, 1756, 1821, 1886, 1951, 2016
2081, 2146, 2211, 2276, 2341, 2406, 2471, 2536, 2601, 2666, 2731, 2796, 2861
*NSET, NSET=YMIN
1, 2, 3, 4, 5, 6, 7, 8, 9, 10, 11, 12, 13, 14, 15, 16
17, 18, 19, 20, 21, 22, 23, 24, 25, 26, 27, 28, 29, 30, 31, 32
33, 34, 35, 36, 37, 38, 39, 40, 41, 42, 43, 44, 45, 46, 47, 48
49, 50, 51, 52, 53, 54, 55, 56, 57, 58, 59, 60, 61, 62, 63, 64
65, 326, 327, 328, 329, 330, 331, 332, 333, 334, 335, 336, 337, 338, 339, 340
341, 342, 343, 344, 345, 346, 347, 348, 349, 350, 351, 352, 353, 354, 355, 356
357, 358, 359, 360, 361, 362, 363, 364, 365, 366, 367, 368, 369, 370, 371, 372
373, 374, 375, 376, 377, 378, 379, 380, 381, 382, 383, 384, 385, 386, 387, 388
389, 390, 651, 652, 653, 654, 655, 656, 657, 658, 659, 660, 661, 662, 663, 664
665, 666, 667, 668, 669, 670, 671, 672, 673, 674, 675, 676, 677, 678, 679, 680
681, 682, 683, 684, 685, 686, 687, 688, 689, 690, 691, 692, 693, 694, 695, 696
697, 698, 699, 700, 701, 702, 703, 704, 705, 706, 707, 708, 709, 710, 711, 712
713, 714, 715, 976, 977, 978, 979, 980, 981, 982, 983, 984, 985, 986, 987, 988
989, 990, 991, 992, 993, 994, 995, 996, 997, 998, 999, 1000, 1001, 1002, 1003, 1004
1005, 1006, 1007, 1008, 1009, 1010, 1011, 1012, 1013, 1014, 1015, 1016, 1017, 1018, 1019, 1020
1021, 1022, 1023, 1024, 1025, 1026, 1027, 1028, 1029, 1030, 1031, 1032, 1033, 1034, 1035, 1036
1037, 1038, 1039, 1040, 1301, 1302, 1303, 1304, 1305, 1306, 1307, 1308, 1309, 1310, 1311, 1312
1313, 1314, 1315, 1316, 1317, 1318, 1319, 1320, 1321, 1322, 1323, 1324, 1325, 1326, 1327, 1328
1329, 1330, 1331, 1332, 1333, 1334, 1335, 1336, 1337, 1338, 1339, 1340, 1341, 1342, 1343, 1344
1345, 1346, 1347, 1348, 1349, 1350, 1351, 1352, 1353, 1354, 1355, 1356, 1357, 1358, 1359, 1360
** ... 17 like lines cut
*NSET, NSET=ZMIN
1, 2, 3, 4, 5, 6, 7, 8, 9, 10, 11, 12, 13, 14, 15, 16
17, 18, 19, 20, 21, 22, 23, 24, 25, 26, 27, 28, 29, 30, 31, 32
33, 34, 35, 36, 37, 38, 39, 40, 41, 42, 43, 44, 45, 46, 47, 48
49, 50, 51, 52, 53, 54, 55, 56, 57, 58, 59, 60, 61, 62, 63, 64
65, 66, 67, 68, 69, 70, 71, 72, 73, 74, 75, 76, 77, 78, 79, 80
81, 82, 83, 84, 85, 86, 87, 88, 89, 90, 91, 92, 93, 94, 95, 96
97, 98, 99, 100, 101, 102, 103, 104, 105, 106, 107, 108, 109, 110, 111, 112
113, 114, 115, 116, 117, 118, 119, 120, 121, 122, 123, 124, 125, 126, 127, 128
129, 130, 131, 132, 133, 134, 135, 136, 137, 138, 139, 140, 141, 142, 143, 144
145, 146, 147, 148, 149, 150, 151, 152, 153, 154, 155, 156, 157, 158, 159, 160
161, 162, 163, 164, 165, 166, 167, 168, 169, 170, 171, 172, 173, 174, 175, 176
177, 178, 179, 180, 181, 182, 183, 184, 185, 186, 187, 188, 189, 190, 191, 192
193, 194, 195, 196, 197, 198, 199, 200, 201, 202, 203, 204, 205, 206, 207, 208
209, 210, 211, 212, 213, 214, 215, 216, 217, 218, 219, 220, 221, 222, 223, 224
225, 226, 227, 228, 229, 230, 231, 232, 233, 234, 235, 236, 237, 238, 239, 240
241, 242, 243, 244, 245, 246, 247, 248, 249, 250, 251, 252, 253, 254, 255, 256
257, 258, 259, 260, 261, 262, 263, 264, 265, 266, 267, 268, 269, 270, 271, 272
273, 274, 275, 276, 277, 278, 279, 280, 281, 282, 283, 284, 285, 286, 287, 288
289, 290, 291, 292, 293, 294, 295, 296, 297, 298, 299, 300, 301, 302, 303, 304
305, 306, 307, 308, 309, 310, 311, 312, 313, 314, 315, 316, 317, 318, 319, 320
321, 322, 323, 324, 325
*NSET, NSET=XMAX
65, 130, 195, 260, 325, 390, 455, 520, 585, 650, 715, 780, 845, 910, 975, 1040
1105, 1170, 1235, 1300, 1365, 1430, 1495, 1560, 1625, 1690, 1755, 1820, 1885, 1950, 2015, 2080
2145, 2210, 2275, 2340, 2405, 2470, 2535, 2600, 2665, 2730, 2795, 2860, 2925
*ELSET, ELSET=PROBE
864
*SOLID SECTION, ELSET=EALL, MATERIAL=VALIDATION
*MATERIAL, NAME=VALIDATION
*ELASTIC
1.0E9, 0.25
*DENSITY
1000.
*BOUNDARY
XMIN, 1, 3, 0.
*STEP
*STATIC
*CLOAD
65, 3, -7.8125
130, 3, -15.625
195, 3, -15.625
260, 3, -15.625
325, 3, -7.8125
390, 3, -15.625
455, 3, -31.25
520, 3, -31.25
585, 3, -31.25
650, 3, -15.625
715, 3, -15.625
780, 3, -31.25
845, 3, -31.25
910, 3, -31.25
975, 3, -15.625
1040, 3, -15.625
1105, 3, -31.25
1170, 3, -31.25
1235, 3, -31.25
1300, 3, -15.625
** ... 25 like lines cut
*NODE PRINT, NSET=XMAX
U
*NODE PRINT, NSET=XMIN, TOTALS=YES
RF
*EL PRINT, ELSET=PROBE
S
*END STEP
