** SpjutSim FEA independent reference: notched-prism-stress
** Generated by tools/generate-calculix-reference.py; SI units.
*NODE
1, 0, 0, 0
2, 0.05, 0, 0
3, 0.1, 0, 0
4, 0.15, 0, 0
5, 0.2, 0, 0
6, 0.25, 0, 0
7, 0.3, 0, 0
8, 0.35, 0, 0
9, 0.4, 0, 0
10, 0.45, 0, 0
11, 0.5, 0, 0
12, 0.55, 0, 0
13, 0.6, 0, 0
14, 0.65, 0, 0
15, 0.7, 0, 0
16, 0.75, 0, 0
17, 0.8, 0, 0
18, 0.85, 0, 0
19, 0.9, 0, 0
20, 0.95, 0, 0
** ... 6055 like lines cut
*ELEMENT, TYPE=C3D8, ELSET=EALL
1, 1, 2, 63, 62, 1282, 1283, 1344, 1343
2, 2, 3, 64, 63, 1283, 1284, 1345, 1344
3, 3, 4, 65, 64, 1284, 1285, 1346, 1345
4, 4, 5, 66, 65, 1285, 1286, 1347, 1346
5, 5, 6, 67, 66, 1286, 1287, 1348, 1347
6, 6, 7, 68, 67, 1287, 1288, 1349, 1348
7, 7, 8, 69, 68, 1288, 1289, 1350, 1349
8, 8, 9, 70, 69, 1289, 1290, 1351, 1350
9, 9, 10, 71, 70, 1290, 1291, 1352, 1351
10, 10, 11, 72, 71, 1291, 1292, 1353, 1352
11, 11, 12, 73, 72, 1292, 1293, 1354, 1353
12, 12, 13, 74, 73, 1293, 1294, 1355, 1354
13, 13, 14, 75, 74, 1294, 1295, 1356, 1355
14, 14, 15, 76, 75, 1295, 1296, 1357, 1356
15, 15, 16, 77, 76, 1296, 1297, 1358, 1357
16, 16, 17, 78, 77, 1297, 1298, 1359, 1358
17, 17, 18, 79, 78, 1298, 1299, 1360, 1359
18, 18, 19, 80, 79, 1299, 1300, 1361, 1360
19, 19, 20, 81, 80, 1300, 1301, 1362, 1361
20, 20, 21, 82, 81, 1301, 1302, 1363, 1362
** ... 4492 like lines cut
*NSET, NSET=NALL
1, 2, 3, 4, 5, 6, 7, 8, 9, 10, 11, 12, 13, 14, 15, 16
17, 18, 19, 20, 21, 22, 23, 24, 25, 26, 27, 28, 29, 30, 31, 32
33, 34, 35, 36, 37, 38, 39, 40, 41, 42, 43, 44, 45, 46, 47, 48
49, 50, 51, 52, 53, 54, 55, 56, 57, 58, 59, 60, 61, 62, 63, 64
65, 66, 67, 68, 69, 70, 71, 72, 73, 74, 75, 76, 77, 78, 79, 80
81, 82, 83, 84, 85, 86, 87, 88, 89, 90, 91, 92, 93, 94, 95, 96
97, 98, 99, 100, 101, 102, 103, 104, 105, 106, 107, 108, 109, 110, 111, 112
113, 114, 115, 116, 117, 118, 119, 120, 121, 122, 123, 124, 125, 126, 127, 128
129, 130, 131, 132, 133, 134, 135, 136, 137, 138, 139, 140, 141, 142, 143, 144
145, 146, 147, 148, 149, 150, 151, 152, 153, 154, 155, 156, 157, 158, 159, 160
161, 162, 163, 164, 165, 166, 167, 168, 169, 170, 171, 172, 173, 174, 175, 176
177, 178, 179, 180, 181, 182, 183, 184, 185, 186, 187, 188, 189, 190, 191, 192
193, 194, 195, 196, 197, 198, 199, 200, 201, 202, 203, 204, 205, 206, 207, 208
209, 210, 211, 212, 213, 214, 215, 216, 217, 218, 219, 220, 221, 222, 223, 224
225, 226, 227, 228, 229, 230, 231, 232, 233, 234, 235, 236, 237, 238, 239, 240
241, 242, 243, 244, 245, 246, 247, 248, 249, 250, 251, 252, 253, 254, 255, 256
257, 258, 259, 260, 261, 262, 263, 264, 265, 266, 267, 268, 269, 270, 271, 272
273, 274, 275, 276, 277, 278, 279, 280, 281, 282, 283, 284, 285, 286, 287, 288
289, 290, 291, 292, 293, 294, 295, 296, 297, 298, 299, 300, 301, 302, 303, 304
305, 306, 307, 308, 309, 310, 311, 312, 313, 314, 315, 316, 317, 318, 319, 320
** ... 360 like lines cut
*NSET, NSET=XMIN
1, 62, 123, 184, 245, 306, 367, 428, 489, 550, 611, 672, 733, 794, 855, 916
977, 1038, 1099, 1160, 1221, 1282, 1343, 1404, 1465, 1526, 1587, 1648, 1709, 1770, 1831, 1892
1953, 2014, 2075, 2136, 2197, 2258, 2319, 2380, 2441, 2502, 2563, 2624, 2685, 2746, 2807, 2868
2929, 2990, 3051, 3112, 3173, 3234, 3295, 3356, 3417, 3478, 3539, 3600, 3661, 3722, 3783, 3844
3905, 3966, 4027, 4088, 4149, 4210, 4271, 4332, 4393, 4454, 4515, 4576, 4637, 4698, 4759, 4820
4881, 4942, 5003, 5064, 5125, 5186, 5247, 5308, 5369, 5430, 5491, 5552, 5613, 5674, 5735, 5796
5857, 5918, 5979, 6040, 6101, 6162, 6223, 6284, 6345
*NSET, NSET=YMIN
1, 2, 3, 4, 5, 6, 7, 8, 9, 10, 11, 12, 13, 14, 15, 16
17, 18, 19, 20, 21, 22, 23, 24, 25, 26, 27, 28, 29, 30, 31, 32
33, 34, 35, 36, 37, 38, 39, 40, 41, 42, 43, 44, 45, 46, 47, 48
49, 50, 51, 52, 53, 54, 55, 56, 57, 58, 59, 60, 61, 1282, 1283, 1284
1285, 1286, 1287, 1288, 1289, 1290, 1291, 1292, 1293, 1294, 1295, 1296, 1297, 1298, 1299, 1300
1301, 1302, 1303, 1304, 1305, 1306, 1307, 1308, 1309, 1310, 1311, 1312, 1313, 1314, 1315, 1316
1317, 1318, 1319, 1320, 1321, 1322, 1323, 1324, 1325, 1326, 1327, 1328, 1329, 1330, 1331, 1332
1333, 1334, 1335, 1336, 1337, 1338, 1339, 1340, 1341, 1342, 2563, 2564, 2565, 2566, 2567, 2568
2569, 2570, 2571, 2572, 2573, 2574, 2575, 2576, 2577, 2578, 2579, 2580, 2581, 2582, 2583, 2584
2585, 2586, 2587, 2588, 2589, 2590, 2591, 2592, 2593, 2594, 2595, 2596, 2597, 2598, 2599, 2600
2601, 2602, 2603, 2604, 2605, 2606, 2607, 2608, 2609, 2610, 2611, 2612, 2613, 2614, 2615, 2616
2617, 2618, 2619, 2620, 2621, 2622, 2623, 3844, 3845, 3846, 3847, 3848, 3849, 3850, 3851, 3852
3853, 3854, 3855, 3856, 3857, 3858, 3859, 3860, 3861, 3862, 3863, 3864, 3865, 3866, 3867, 3868
3869, 3870, 3871, 3872, 3873, 3874, 3875, 3876, 3877, 3878, 3879, 3880, 3881, 3882, 3883, 3884
3885, 3886, 3887, 3888, 3889, 3890, 3891, 3892, 3893, 3894, 3895, 3896, 3897, 3898, 3899, 3900
3901, 3902, 3903, 3904, 5125, 5126, 5127, 5128, 5129, 5130, 5131, 5132, 5133, 5134, 5135, 5136
5137, 5138, 5139, 5140, 5141, 5142, 5143, 5144, 5145, 5146, 5147, 5148, 5149, 5150, 5151, 5152
5153, 5154, 5155, 5156, 5157, 5158, 5159, 5160, 5161, 5162, 5163, 5164, 5165, 5166, 5167, 5168
5169, 5170, 5171, 5172, 5173, 5174, 5175, 5176, 5177, 5178, 5179, 5180, 5181, 5182, 5183, 5184
5185
*NSET, NSET=ZMIN
1, 2, 3, 4, 5, 6, 7, 8, 9, 10, 11, 12, 13, 14, 15, 16
17, 18, 19, 20, 21, 22, 23, 24, 25, 26, 27, 28, 29, 30, 31, 32
33, 34, 35, 36, 37, 38, 39, 40, 41, 42, 43, 44, 45, 46, 47, 48
49, 50, 51, 52, 53, 54, 55, 56, 57, 58, 59, 60, 61, 62, 63, 64
65, 66, 67, 68, 69, 70, 71, 72, 73, 74, 75, 76, 77, 78, 79, 80
81, 82, 83, 84, 85, 86, 87, 88, 89, 90, 91, 92, 93, 94, 95, 96
97, 98, 99, 100, 101, 102, 103, 104, 105, 106, 107, 108, 109, 110, 111, 112
113, 114, 115, 116, 117, 118, 119, 120, 121, 122, 123, 124, 125, 126, 127, 128
129, 130, 131, 132, 133, 134, 135, 136, 137, 138, 139, 140, 141, 142, 143, 144
145, 146, 147, 148, 149, 150, 151, 152, 153, 154, 155, 156, 157, 158, 159, 160
161, 162, 163, 164, 165, 166, 167, 168, 169, 170, 171, 172, 173, 174, 175, 176
177, 178, 179, 180, 181, 182, 183, 184, 185, 186, 187, 188, 189, 190, 191, 192
193, 194, 195, 196, 197, 198, 199, 200, 201, 202, 203, 204, 205, 206, 207, 208
209, 210, 211, 212, 213, 214, 215, 216, 217, 218, 219, 220, 221, 222, 223, 224
225, 226, 227, 228, 229, 230, 231, 232, 233, 234, 235, 236, 237, 238, 239, 240
241, 242, 243, 244, 245, 246, 247, 248, 249, 250, 251, 252, 253, 254, 255, 256
257, 258, 259, 260, 261, 262, 263, 264, 265, 266, 267, 268, 269, 270, 271, 272
273, 274, 275, 276, 277, 278, 279, 280, 281, 282, 283, 284, 285, 286, 287, 288
289, 290, 291, 292, 293, 294, 295, 296, 297, 298, 299, 300, 301, 302, 303, 304
305, 306, 307, 308, 309, 310, 311, 312, 313, 314, 315, 316, 317, 318, 319, 320
** ... 56 like lines cut
*NSET, NSET=XMAX
61, 122, 183, 244, 305, 366, 427, 488, 549, 610, 671, 732, 793, 854, 915, 976
1037, 1098, 1159, 1220, 1281, 1342, 1403, 1464, 1525, 1586, 1647, 1708, 1769, 1830, 1891, 1952
2013, 2074, 2135, 2196, 2257, 2318, 2379, 2440, 2501, 2562, 2623, 2684, 2745, 2806, 2867, 2928
2989, 3050, 3111, 3172, 3233, 3294, 3355, 3416, 3477, 3538, 3599, 3660, 3721, 3782, 3843, 3904
3965, 4026, 4087, 4148, 4209, 4270, 4331, 4392, 4453, 4514, 4575, 4636, 4697, 4758, 4819, 4880
4941, 5002, 5063, 5124, 5185, 5246, 5307, 5368, 5429, 5490, 5551, 5612, 5673, 5734, 5795, 5856
5917, 5978, 6039, 6100, 6161, 6222, 6283, 6344, 6405
*ELSET, ELSET=PROBE
1698
*SOLID SECTION, ELSET=EALL, MATERIAL=VALIDATION
*MATERIAL, NAME=VALIDATION
*ELASTIC
1.0E9, 0.25
*DENSITY
1000.
*BOUNDARY
XMIN, 1, 3, 0.
*STEP
*STATIC
*CLOAD
61, 1, 3.125
122, 1, 6.25
183, 1, 6.25
244, 1, 6.25
305, 1, 6.25
366, 1, 6.25
427, 1, 6.25
488, 1, 6.25
549, 1, 6.25
610, 1, 6.25
671, 1, 6.25
732, 1, 6.25
793, 1, 6.25
854, 1, 6.25
915, 1, 6.25
976, 1, 6.25
1037, 1, 6.25
1098, 1, 6.25
1159, 1, 6.25
1220, 1, 6.25
** ... 85 like lines cut
*NODE PRINT, NSET=XMAX
U
*NODE PRINT, NSET=XMIN, TOTALS=YES
RF
*EL PRINT, ELSET=PROBE
S
*END STEP
